
Note: No compatibility mode selected!


Circuit: * basic select-function test for tmux3

Doing analysis at TEMP = 27.000000 and TNOM = 27.000000

Using SPARSE 1.3 as Direct Linear Solver

No. of Data Rows : 3
ngspice-45.2 done
