
Note: No compatibility mode selected!


Circuit: * truth-table dc sweep for tmin

Doing analysis at TEMP = 27.000000 and TNOM = 27.000000

Using SPARSE 1.3 as Direct Linear Solver

No. of Data Rows : 9
ngspice-45.2 done
